@<TRIPOS>MOLECULE
Unnamed
26 25 1 0 0
SMALL
USER_CHARGES


@<TRIPOS>ATOM
      1 F           0.0629   -0.8916    0.0485 F         1     ****    0.0000
      2 F           0.0851    1.2012    0.0543 F         1     ****    0.0000
      3 F          -2.3133    1.2213   -1.2608 F         1     ****    0.0000
      4 F          -2.3245   -0.8707   -1.2624 F         1     ****    0.0000
      5 F          -2.3375   -0.8704    1.3496 F         1     ****    0.0000
      6 F          -2.3202    1.2202    1.3547 F         1     ****    0.0000
      7 F           0.0616   -0.9017   -2.5760 F         1     ****    0.0000
      8 F           0.1057    1.1880   -2.5640 F         1     ****    0.0000
      9 F           0.0681    1.2008    2.6696 F         1     ****    0.0000
     10 F           0.0449   -0.9028    2.6648 F         1     ****    0.0000
     11 F          -2.3056    1.2167   -3.9071 F         1     ****    0.0000
     12 F          -2.2798   -0.9353   -3.8964 F         1     ****    0.0000
     13 F          -2.3130    1.2189    4.0055 F         1     ****    0.0000
     14 F          -0.7924    0.1526    4.9979 F         1     ****    0.0000
     15 F          -2.3350   -0.8759    4.0001 F         1     ****    0.0000
     16 O          -0.4056   -1.1240   -5.5700 O.3       1     ****    0.0000
     17 O          -0.0132    1.1123   -5.5568 O.2       1     ****    0.0000
     18 C          -0.7313    0.1634    0.0508 C.3       1     ****    0.0000
     19 C          -1.5130    0.1710   -1.2529 C.3       1     ****    0.0000
     20 C          -1.5222    0.1682    1.3492 C.3       1     ****    0.0000
     21 C          -0.7240    0.1605   -2.5491 C.3       1     ****    0.0000
     22 C          -0.7455    0.1579    2.6573 C.3       1     ****    0.0000
     23 C          -1.4943    0.1503   -3.8517 C.3       1     ****    0.0000
     24 C          -1.5499    0.1636    3.9334 C.3       1     ****    0.0000
     25 C          -0.5533    0.1308   -5.0868 C.2       1     ****    0.0000
     26 H          -0.9423   -1.7775   -5.0943 H         1     ****    0.0000
@<TRIPOS>BOND
     1     1    18     1
     2     2    18     1
     3     3    19     1
     4     4    19     1
     5     5    20     1
     6     6    20     1
     7     7    21     1
     8     8    21     1
     9     9    22     1
    10    10    22     1
    11    11    23     1
    12    12    23     1
    13    13    24     1
    14    14    24     1
    15    15    24     1
    16    16    25     1
    17    16    26     1
    18    17    25     2
    19    18    19     1
    20    18    20     1
    21    19    21     1
    22    20    22     1
    23    21    23     1
    24    22    24     1
    25    23    25     1
